Version 4
SHEET 1 960 680
WIRE -48 -128 -112 -128
WIRE 16 -128 -48 -128
WIRE 128 -128 16 -128
WIRE 128 -112 128 -128
WIRE 256 -112 256 -160
WIRE -112 -96 -112 -128
WIRE -48 -96 -48 -128
WIRE 16 -48 16 -128
WIRE 48 -48 16 -48
WIRE 384 -48 336 -48
WIRE 384 -32 384 -48
WIRE -112 16 -112 -16
WIRE -80 16 -112 16
WIRE -48 16 -48 -32
WIRE -48 16 -80 16
WIRE -80 32 -80 16
WIRE 48 48 0 48
WIRE 384 48 384 32
WIRE 384 48 336 48
WIRE 496 48 384 48
WIRE 624 48 576 48
WIRE 0 64 0 48
WIRE 624 144 624 48
WIRE 624 144 336 144
WIRE 384 240 336 240
WIRE 512 240 384 240
WIRE 656 240 512 240
WIRE 784 240 656 240
WIRE 384 256 384 240
WIRE 512 256 512 240
WIRE 656 320 656 240
WIRE 784 320 784 240
WIRE 48 336 -64 336
WIRE 384 336 384 320
WIRE 384 336 336 336
WIRE 512 336 384 336
WIRE -64 352 -64 336
WIRE 512 368 512 336
WIRE 192 432 192 400
WIRE -64 464 -64 432
WIRE 512 464 512 448
WIRE 656 464 656 384
WIRE 656 464 512 464
WIRE 784 464 784 400
WIRE 784 464 656 464
WIRE 512 496 512 464
FLAG 512 496 0
FLAG -64 464 0
FLAG 320 -160 0
FLAG -80 32 0
FLAG -16 240 0
FLAG 192 432 0
FLAG 0 64 0
SYMBOL PowerProducts\\LT8631 192 144 R0
SYMATTR InstName U1
SYMBOL cap 368 -32 R0
SYMATTR InstName C2
SYMATTR Value 0.1µ
SYMBOL ind 480 64 R270
WINDOW 0 32 56 VTop 2
WINDOW 3 5 56 VBottom 2
SYMATTR InstName L1
SYMATTR Value 22µ
SYMBOL cap 368 256 R0
SYMATTR InstName C3
SYMATTR Value 4.7p
SYMBOL res 496 240 R0
SYMATTR InstName R1
SYMATTR Value 1Meg
SYMBOL res 496 352 R0
SYMATTR InstName R2
SYMATTR Value 191k
SYMBOL res -80 336 R0
SYMATTR InstName R3
SYMATTR Value 25.5k
SYMBOL cap 320 -176 R90
WINDOW 0 -12 67 Bottom 2
WINDOW 3 -22 1 Top 2
SYMATTR InstName C1
SYMATTR Value 2.2µ
SYMBOL voltage -112 -112 R0
WINDOW 0 -75 42 Left 2
WINDOW 3 -78 74 Left 2
WINDOW 123 0 0 Left 0
WINDOW 39 0 0 Left 0
SYMATTR InstName V1
SYMATTR Value 150
SYMBOL cap -64 -96 R0
SYMATTR InstName C5
SYMATTR Value 2.2µ
SYMBOL cap 48 224 R90
WINDOW 0 0 32 VBottom 2
WINDOW 3 32 32 VTop 2
SYMATTR InstName C6
SYMATTR Value 0.1µ
SYMBOL current 784 320 R0
WINDOW 123 0 0 Left 0
WINDOW 39 0 0 Left 0
SYMATTR InstName I1
SYMATTR Value 1
SYMBOL polcap 640 320 R0
SYMATTR InstName C7
SYMATTR Value 47µ
TEXT -192 520 Left 2 !.tran 50m startup
